# generated using pymatgen
data_Na0.5Li0.5Cl0.5F0.5
_symmetry_space_group_name_H-M   'P 1'
_cell_length_a   1.00000000
_cell_length_b   1.00000000
_cell_length_c   1.00000000
_cell_angle_alpha   60.00000000
_cell_angle_beta   60.00000000
_cell_angle_gamma   60.00000000
_symmetry_Int_Tables_number   1
_chemical_formula_structural   Na0.5Li0.5Cl0.5F0.5
_chemical_formula_sum   'Na0.5 Li0.5 Cl0.5 F0.5'
_cell_volume   0.70710678
_cell_formula_units_Z   1
loop_
 _symmetry_equiv_pos_site_id
 _symmetry_equiv_pos_as_xyz
  1  'x, y, z'
loop_
 _atom_type_symbol
 _atom_type_oxidation_number
  Na+  1.0
  Li+  1.0
  Cl-  -1.0
  F-  -1.0
loop_
 _atom_site_type_symbol
 _atom_site_label
 _atom_site_symmetry_multiplicity
 _atom_site_fract_x
 _atom_site_fract_y
 _atom_site_fract_z
 _atom_site_occupancy
  Na+  Na0  1  0.00000000  0.00000000  0.00000000  0.5
  Li+  Li1  1  0.00000000  0.00000000  0.00000000  0.5
  Cl-  Cl2  1  0.50000000  0.50000000  0.50000000  0.5
  F-  F3  1  0.50000000  0.50000000  0.50000000  0.5
